
-----------------
Simulation name: sim1
Timestamp: 2025-12-02 02:50:04

Note: No compatibility mode selected!


Circuit: * simple voltage divider

Doing analysis at TEMP = 27.000000 and TNOM = 27.000000

Using SPARSE 1.3 as Direct Linear Solver

No. of Data Rows : 1
ngspice-44.2 done
