
-----------------
Simulation name: sim1
Timestamp: 2025-11-27 02:22:05

Note: No compatibility mode selected!


Circuit: * linear regulator section 1.4.4

Doing analysis at TEMP = 27.000000 and TNOM = 27.000000

Using SPARSE 1.3 as Direct Linear Solver

No. of Data Rows : 1
Doing analysis at TEMP = 27.000000 and TNOM = 27.000000

Using SPARSE 1.3 as Direct Linear Solver

No. of Data Rows : 1
ngspice-44.2 done

-----------------
Simulation name: sim2
Timestamp: 2025-11-27 02:22:05

Note: No compatibility mode selected!


Circuit: * linear regulator section 1.4.4

Doing analysis at TEMP = 27.000000 and TNOM = 27.000000

Using SPARSE 1.3 as Direct Linear Solver

Initial Transient Solution
--------------------------

Node                                   Voltage
----                                   -------
div                                    2.49566
com                                          0
beta                                  0.434139
vref                                       2.5
out                                    4.99132
g                                      4.34139
gain                                      0.75
in                                          15
sum                                    5.09139
out_meas                                     0
b.x3.b1#branch                       -0.100076
e.x2.e1#branch                               0
e2#branch                                    0
e1#branch                                    0
vin#branch                                   0
vref#branch                                  0
vcom#branch                        0.000249566
vmeas#branch                         0.0998263


No. of Data Rows : 20014
ngspice-44.2 done

-----------------
Simulation name: sim3
Timestamp: 2025-11-27 02:22:06

Note: No compatibility mode selected!


Circuit: * linear regulator section 1.4.4

Doing analysis at TEMP = 27.000000 and TNOM = 27.000000

Using SPARSE 1.3 as Direct Linear Solver

Initial Transient Solution
--------------------------

Node                                   Voltage
----                                   -------
div                                    2.49566
com                                          0
beta                                  0.434157
vref                                       2.5
out                                    4.99132
g                                      4.34157
gain                                      0.75
in                                          15
sum                                    5.09157
b.x3.b1#branch                        -0.10025
e.x2.e1#branch                               0
e2#branch                                    0
e1#branch                                    0
vin#branch                                   0
vref#branch                                  0
vcom#branch                        0.000249566


No. of Data Rows : 20014
ngspice-44.2 done

-----------------
Simulation name: sim4
Timestamp: 2025-11-27 02:22:06

Note: No compatibility mode selected!


Circuit: * linear regulator section 1.4.4

Doing analysis at TEMP = 27.000000 and TNOM = 27.000000

Using SPARSE 1.3 as Direct Linear Solver

No. of Data Rows : 701
ngspice-44.2 done

-----------------
Simulation name: sim5
Timestamp: 2025-11-27 02:22:07

Note: No compatibility mode selected!


Circuit: * linear regulator section 1.4.4

Doing analysis at TEMP = 27.000000 and TNOM = 27.000000

Using SPARSE 1.3 as Direct Linear Solver

No. of Data Rows : 701
ngspice-44.2 done

-----------------
Simulation name: sim6
Timestamp: 2025-11-27 02:22:07

Note: No compatibility mode selected!


Circuit: * linear regulator section 1.4.4

Doing analysis at TEMP = 27.000000 and TNOM = 27.000000

Using SPARSE 1.3 as Direct Linear Solver

Initial Transient Solution
--------------------------

Node                                   Voltage
----                                   -------
div                                    2.49566
com                                          0
beta                                  0.434157
vref                                       2.5
out                                    4.99132
g                                      4.34157
gain                                      0.75
in                                          15
sum                                    5.09157
rc                                    0.434157
b.x3.b1#branch                        -0.10025
e.x2.e1#branch                               0
e2#branch                                    0
e1#branch                                    0
vin#branch                                   0
vref#branch                                  0
vcom#branch                        0.000249566


No. of Data Rows : 10020
ngspice-44.2 done

-----------------
Simulation name: sim6
Timestamp: 2025-11-27 02:22:07

Note: No compatibility mode selected!


Circuit: * linear regulator section 1.4.4

Doing analysis at TEMP = 27.000000 and TNOM = 27.000000

Using SPARSE 1.3 as Direct Linear Solver

Initial Transient Solution
--------------------------

Node                                   Voltage
----                                   -------
div                                    2.49566
com                                          0
beta                                  0.434157
vref                                       2.5
out                                    4.99132
g                                      4.34157
gain                                      0.75
in                                          15
sum                                    5.09157
rc                                    0.434157
b.x3.b1#branch                        -0.10025
e.x2.e1#branch                               0
e2#branch                                    0
e1#branch                                    0
vin#branch                                   0
vref#branch                                  0
vcom#branch                        0.000249566


No. of Data Rows : 10020
ngspice-44.2 done

-----------------
Simulation name: sim6
Timestamp: 2025-11-27 02:22:08

Note: No compatibility mode selected!


Circuit: * linear regulator section 1.4.4

Doing analysis at TEMP = 27.000000 and TNOM = 27.000000

Using SPARSE 1.3 as Direct Linear Solver

Initial Transient Solution
--------------------------

Node                                   Voltage
----                                   -------
div                                    2.49566
com                                          0
beta                                  0.434157
vref                                       2.5
out                                    4.99132
g                                      4.34157
gain                                      0.75
in                                          15
sum                                    5.09157
rc                                    0.434157
b.x3.b1#branch                        -0.10025
e.x2.e1#branch                               0
e2#branch                                    0
e1#branch                                    0
vin#branch                                   0
vref#branch                                  0
vcom#branch                        0.000249566


No. of Data Rows : 10020
ngspice-44.2 done

-----------------
Simulation name: sim6
Timestamp: 2025-11-27 02:22:08

Note: No compatibility mode selected!


Circuit: * linear regulator section 1.4.4

Doing analysis at TEMP = 27.000000 and TNOM = 27.000000

Using SPARSE 1.3 as Direct Linear Solver

Initial Transient Solution
--------------------------

Node                                   Voltage
----                                   -------
div                                    2.49566
com                                          0
beta                                  0.434157
vref                                       2.5
out                                    4.99132
g                                      4.34157
gain                                      0.75
in                                          15
sum                                    5.09157
rc                                    0.434157
b.x3.b1#branch                        -0.10025
e.x2.e1#branch                               0
e2#branch                                    0
e1#branch                                    0
vin#branch                                   0
vref#branch                                  0
vcom#branch                        0.000249566


No. of Data Rows : 10020
ngspice-44.2 done

-----------------
Simulation name: sim7
Timestamp: 2025-11-27 02:22:08

Note: No compatibility mode selected!


Circuit: * linear regulator section 1.4.4

Doing analysis at TEMP = 27.000000 and TNOM = 27.000000

Using SPARSE 1.3 as Direct Linear Solver

Initial Transient Solution
--------------------------

Node                                   Voltage
----                                   -------
div                                    2.49561
com                                          0
beta                                  0.438525
vref                                       2.5
out                                      5.035
g                                      4.38525
gain                                      0.75
in                                          15
sum                                    5.13525
b.x3.b1#branch                       -0.100254
e.x2.e1#branch                               0
e2#branch                                    0
e1#branch                          4.37679e-06
vin#branch                                   0
vref#branch                                  0
vcom#branch                        0.000253938


No. of Data Rows : 10020
ngspice-44.2 done
